
Nothing,here!
Aha!
new line.
dev new line!
