
Nothing,here!
Aha!
new line.
dev new line!
something...
dev added something.
